139030532
  -OEChem-02092519413D

 69 72  0     1  0  0  0  0  0999 V2000
   -3.3474    3.0686   -0.0080 S   0  0  0  0  0  0  0  0  0  0  0  0
   -4.6919    2.5890   -0.2671 O   0  0  0  0  0  0  0  0  0  0  0  0
   -2.6210    3.8077   -1.0229 O   0  0  0  0  0  0  0  0  0  0  0  0
   -2.4053    1.7350    0.5082 N   0  0  0  0  0  0  0  0  0  0  0  0
   -3.3826    4.0045    1.4302 N   0  0  0  0  0  0  0  0  0  0  0  0
    0.9553    0.5601   -0.3109 C   0  0  1  0  0  0  0  0  0  0  0  0
   -0.2091    1.5053   -0.7498 C   0  0  2  0  0  0  0  0  0  0  0  0
   -0.9401    1.8996    0.5586 C   0  0  2  0  0  0  0  0  0  0  0  0
    1.0846    0.8107    1.2004 C   0  0  0  0  0  0  0  0  0  0  0  0
   -0.9940    0.7096   -1.8051 C   0  0  0  0  0  0  0  0  0  0  0  0
   -0.3452    1.0371    1.6653 C   0  0  0  0  0  0  0  0  0  0  0  0
    0.3947   -0.8072   -0.6720 C   0  0  0  0  0  0  0  0  0  0  0  0
   -0.6697   -0.7182   -1.4885 C   0  0  0  0  0  0  0  0  0  0  0  0
    2.2312    0.8609   -1.0413 C   0  0  0  0  0  0  0  0  0  0  0  0
   -1.4838   -1.8042   -2.1036 C   0  0  0  0  0  0  0  0  0  0  0  0
    0.9680   -2.0557   -0.1585 C   0  0  0  0  0  0  0  0  0  0  0  0
    3.4523    1.1159   -0.2369 C   0  0  0  0  0  0  0  0  0  0  0  0
   -2.9719   -1.7099   -1.7602 C   0  0  0  0  0  0  0  0  0  0  0  0
    2.2546    0.9113   -2.3839 C   0  0  0  0  0  0  0  0  0  0  0  0
    0.5095   -2.5899    1.0457 C   0  0  0  0  0  0  0  0  0  0  0  0
    1.9718   -2.7086   -0.8739 C   0  0  0  0  0  0  0  0  0  0  0  0
   -3.2527   -1.8608   -0.2616 C   0  0  0  0  0  0  0  0  0  0  0  0
    3.7546    2.4120    0.1806 C   0  0  0  0  0  0  0  0  0  0  0  0
    4.2973    0.0590    0.1019 C   0  0  0  0  0  0  0  0  0  0  0  0
    1.0549   -3.7771    1.5345 C   0  0  0  0  0  0  0  0  0  0  0  0
    2.5172   -3.8957   -0.3851 C   0  0  0  0  0  0  0  0  0  0  0  0
   -4.7477   -1.7310    0.0378 C   0  0  0  0  0  0  0  0  0  0  0  0
    2.0587   -4.4299    0.8191 C   0  0  0  0  0  0  0  0  0  0  0  0
    4.9019    2.6513    0.9369 C   0  0  0  0  0  0  0  0  0  0  0  0
    5.4446    0.2985    0.8581 C   0  0  0  0  0  0  0  0  0  0  0  0
    5.7470    1.5946    1.2756 C   0  0  0  0  0  0  0  0  0  0  0  0
   -5.0275   -1.8522    1.5356 C   0  0  0  0  0  0  0  0  0  0  0  0
   -6.5081   -1.6905    1.8407 C   0  0  0  0  0  0  0  0  0  0  0  0
    0.1537    2.4358   -1.2077 H   0  0  0  0  0  0  0  0  0  0  0  0
   -0.6963    2.9443    0.7928 H   0  0  0  0  0  0  0  0  0  0  0  0
    1.5613   -0.0039    1.7543 H   0  0  0  0  0  0  0  0  0  0  0  0
    1.6220    1.7331    1.4420 H   0  0  0  0  0  0  0  0  0  0  0  0
   -0.6740    0.9546   -2.8225 H   0  0  0  0  0  0  0  0  0  0  0  0
   -2.0627    0.9223   -1.7653 H   0  0  0  0  0  0  0  0  0  0  0  0
   -0.8814    0.0887    1.7709 H   0  0  0  0  0  0  0  0  0  0  0  0
   -0.3847    1.5387    2.6380 H   0  0  0  0  0  0  0  0  0  0  0  0
   -2.8210    1.0938    1.1949 H   0  0  0  0  0  0  0  0  0  0  0  0
   -1.1137   -2.7931   -1.8101 H   0  0  0  0  0  0  0  0  0  0  0  0
   -1.3704   -1.7491   -3.1934 H   0  0  0  0  0  0  0  0  0  0  0  0
   -3.3984   -0.7710   -2.1308 H   0  0  0  0  0  0  0  0  0  0  0  0
   -3.4966   -2.5100   -2.2982 H   0  0  0  0  0  0  0  0  0  0  0  0
    1.4044    0.7187   -3.0203 H   0  0  0  0  0  0  0  0  0  0  0  0
    3.1808    1.1379   -2.9060 H   0  0  0  0  0  0  0  0  0  0  0  0
   -0.2798   -2.1062    1.6133 H   0  0  0  0  0  0  0  0  0  0  0  0
    2.3372   -2.3096   -1.8168 H   0  0  0  0  0  0  0  0  0  0  0  0
   -2.8924   -2.8386    0.0805 H   0  0  0  0  0  0  0  0  0  0  0  0
   -2.7076   -1.1024    0.3081 H   0  0  0  0  0  0  0  0  0  0  0  0
    3.1069    3.2465   -0.0774 H   0  0  0  0  0  0  0  0  0  0  0  0
    4.0872   -0.9554   -0.2200 H   0  0  0  0  0  0  0  0  0  0  0  0
   -2.4770    4.3864    1.7349 H   0  0  0  0  0  0  0  0  0  0  0  0
   -4.1099    4.7314    1.4686 H   0  0  0  0  0  0  0  0  0  0  0  0
    0.6960   -4.1947    2.4706 H   0  0  0  0  0  0  0  0  0  0  0  0
    3.2980   -4.4046   -0.9426 H   0  0  0  0  0  0  0  0  0  0  0  0
   -5.3016   -2.5063   -0.5053 H   0  0  0  0  0  0  0  0  0  0  0  0
   -5.1098   -0.7607   -0.3239 H   0  0  0  0  0  0  0  0  0  0  0  0
    2.4827   -5.3547    1.1992 H   0  0  0  0  0  0  0  0  0  0  0  0
    5.1376    3.6605    1.2616 H   0  0  0  0  0  0  0  0  0  0  0  0
    6.1037   -0.5240    1.1202 H   0  0  0  0  0  0  0  0  0  0  0  0
    6.6406    1.7810    1.8641 H   0  0  0  0  0  0  0  0  0  0  0  0
   -4.4635   -1.0876    2.0827 H   0  0  0  0  0  0  0  0  0  0  0  0
   -4.6879   -2.8287    1.8999 H   0  0  0  0  0  0  0  0  0  0  0  0
   -7.0995   -2.4586    1.3322 H   0  0  0  0  0  0  0  0  0  0  0  0
   -6.6856   -1.7817    2.9168 H   0  0  0  0  0  0  0  0  0  0  0  0
   -6.8698   -0.7086    1.5188 H   0  0  0  0  0  0  0  0  0  0  0  0
  1  2  2  0  0  0  0
  1  3  2  0  0  0  0
  1  4  1  0  0  0  0
  1  5  1  0  0  0  0
  4  8  1  0  0  0  0
  4 42  1  0  0  0  0
  5 55  1  0  0  0  0
  5 56  1  0  0  0  0
  6  7  1  0  0  0  0
  6  9  1  0  0  0  0
  6 12  1  0  0  0  0
  6 14  1  0  0  0  0
  7  8  1  0  0  0  0
  7 10  1  0  0  0  0
  7 34  1  0  0  0  0
  8 11  1  0  0  0  0
  8 35  1  0  0  0  0
  9 11  1  0  0  0  0
  9 36  1  0  0  0  0
  9 37  1  0  0  0  0
 10 13  1  0  0  0  0
 10 38  1  0  0  0  0
 10 39  1  0  0  0  0
 11 40  1  0  0  0  0
 11 41  1  0  0  0  0
 12 13  2  0  0  0  0
 12 16  1  0  0  0  0
 13 15  1  0  0  0  0
 14 17  1  0  0  0  0
 14 19  2  0  0  0  0
 15 18  1  0  0  0  0
 15 43  1  0  0  0  0
 15 44  1  0  0  0  0
 16 20  2  0  0  0  0
 16 21  1  0  0  0  0
 17 23  2  0  0  0  0
 17 24  1  0  0  0  0
 18 22  1  0  0  0  0
 18 45  1  0  0  0  0
 18 46  1  0  0  0  0
 19 47  1  0  0  0  0
 19 48  1  0  0  0  0
 20 25  1  0  0  0  0
 20 49  1  0  0  0  0
 21 26  2  0  0  0  0
 21 50  1  0  0  0  0
 22 27  1  0  0  0  0
 22 51  1  0  0  0  0
 22 52  1  0  0  0  0
 23 29  1  0  0  0  0
 23 53  1  0  0  0  0
 24 30  2  0  0  0  0
 24 54  1  0  0  0  0
 25 28  2  0  0  0  0
 25 57  1  0  0  0  0
 26 28  1  0  0  0  0
 26 58  1  0  0  0  0
 27 32  1  0  0  0  0
 27 59  1  0  0  0  0
 27 60  1  0  0  0  0
 28 61  1  0  0  0  0
 29 31  2  0  0  0  0
 29 62  1  0  0  0  0
 30 31  1  0  0  0  0
 30 63  1  0  0  0  0
 31 64  1  0  0  0  0
 32 33  1  0  0  0  0
 32 65  1  0  0  0  0
 32 66  1  0  0  0  0
 33 67  1  0  0  0  0
 33 68  1  0  0  0  0
 33 69  1  0  0  0  0
M  END
> <PUBCHEM_COMPOUND_CID>
139030532

> <PUBCHEM_CONFORMER_RMSD>
1.2

> <PUBCHEM_CONFORMER_DIVERSEORDER>
1
15
50
56
25
130
55
20
80
4
123
74
92
59
115
89
79
29
21
110
31
107
99
124
18
39
14
87
113
68
28
53
64
112
77
33
91
3
16
40
65
120
125
82
96
23
24
45
13
49
51
102
38
83
121
132
128
58
81
44
111
36
129
17
47
61
97
27
131
54
34
26
108
93
35
57
76
86
100
2
12
109
118
63
78
101
11
62
30
106
69
67
70
98
8
116
5
90
6
71
75
114
10
43
52
95
88
32
42
9
37
41
60
73
85
103
127
19
126
119
22
7
46
48
104
117
72
94
122
105
84
66

> <PUBCHEM_MMFF94_PARTIAL_CHARGES>
40
1 1.58
10 0.14
12 -0.17
13 -0.28
14 -0.17
15 0.14
16 0.03
17 0.03
19 -0.3
2 -0.65
20 -0.15
21 -0.15
23 -0.15
24 -0.15
25 -0.15
26 -0.15
28 -0.15
29 -0.15
3 -0.65
30 -0.15
31 -0.15
4 -0.91
42 0.42
47 0.15
48 0.15
49 0.15
5 -0.98
50 0.15
53 0.15
54 0.15
55 0.42
56 0.42
57 0.15
58 0.15
6 0.28
61 0.15
62 0.15
63 0.15
64 0.15
8 0.36

> <PUBCHEM_EFFECTIVE_ROTOR_COUNT>
10.8

> <PUBCHEM_PHARMACOPHORE_FEATURES>
9
1 19 hydrophobe
1 33 hydrophobe
1 4 donor
1 5 donor
5 15 18 22 27 32 hydrophobe
5 6 7 10 12 13 rings
5 6 7 8 9 11 rings
6 16 20 21 25 26 28 rings
6 17 23 24 29 30 31 rings

> <PUBCHEM_HEAVY_ATOM_COUNT>
33

> <PUBCHEM_ATOM_DEF_STEREO_COUNT>
2

> <PUBCHEM_ATOM_UDEF_STEREO_COUNT>
1

> <PUBCHEM_BOND_DEF_STEREO_COUNT>
0

> <PUBCHEM_BOND_UDEF_STEREO_COUNT>
0

> <PUBCHEM_ISOTOPIC_ATOM_COUNT>
0

> <PUBCHEM_COMPONENT_COUNT>
1

> <PUBCHEM_CACTVS_TAUTO_COUNT>
-1

> <PUBCHEM_CONFORMER_ID>
0849700400000001

> <PUBCHEM_MMFF94_ENERGY>
99.2091

> <PUBCHEM_FEATURE_SELFOVERLAP>
46.156

> <PUBCHEM_SHAPE_FINGERPRINT>
10006869 2 18271807879118186317
10190108 129 18264227901263723259
10906281 52 17769102576974973124
10930396 42 17477443927942049256
1100329 8 17979353058184590463
11421498 54 18335989774166326119
11578080 2 18340773615756091249
12160290 23 17984164792046401308
12422481 6 18337096874837888194
12788726 201 18196660820051145012
12930653 34 18411134723228409149
13140716 1 17979355583915368103
13583140 156 18339648815118334736
14178342 30 18335703823337886332
144659 39 18059859407097103245
14787075 74 17987236810164270576
14790565 3 18340479084126156076
21033650 10 18128553720163775948
21421861 104 18412546491853593355
23419403 2 17249480687411543228
23559900 14 17911517593324502142
283562 15 18268412706690048140
3383291 50 18337376220255261938
392239 28 18267861864159841259
394222 165 18057320587551758480
4340502 62 18410864256384747113
469060 322 18263661700278651713
5171179 24 18267317451607821986
56638632 33 17692786230372515642
6004065 56 17908134735664854095
7226269 152 18195235853033696924

> <PUBCHEM_SHAPE_MULTIPOLES>
661.27
10.62
5.41
1.92
3.5
1.51
-0.41
-3.05
5.5
1.31
1.34
0.82
0.3
0.57

> <PUBCHEM_SHAPE_SELFOVERLAP>
1396.969

> <PUBCHEM_SHAPE_VOLUME>
373.8

> <PUBCHEM_COORDINATE_TYPE>
2
5
10

$$$$
